Version 4
SHEET 1 1640 680
WIRE 432 64 432 16
WIRE 512 64 432 64
WIRE 672 64 608 64
WIRE 784 64 784 16
WIRE 784 64 672 64
WIRE 944 64 784 64
WIRE 1040 64 944 64
WIRE 1168 64 1040 64
WIRE 944 80 944 64
WIRE 1040 80 1040 64
WIRE 672 96 672 64
WIRE 1168 96 1168 64
WIRE 1120 112 1104 112
WIRE 944 176 944 144
WIRE 1040 176 1040 160
WIRE 1104 176 1104 112
WIRE 1104 176 1040 176
WIRE 432 192 432 64
WIRE 592 192 592 112
WIRE 672 192 672 160
WIRE 672 192 592 192
WIRE 1040 192 1040 176
WIRE 1168 208 1168 192
WIRE 1184 208 1168 208
WIRE 592 256 592 192
WIRE 1168 256 1168 208
WIRE 944 272 944 256
WIRE 992 272 944 272
WIRE 944 288 944 272
WIRE 432 384 432 272
WIRE 592 384 592 336
WIRE 592 384 432 384
WIRE 784 384 592 384
WIRE 944 384 944 368
WIRE 944 384 784 384
WIRE 1040 384 1040 288
WIRE 1040 384 944 384
WIRE 1168 384 1168 336
WIRE 1168 384 1040 384
WIRE 784 400 784 384
FLAG 784 16 vrp
FLAG 432 16 vi
FLAG 672 192 vg
FLAG 1184 208 vo
FLAG 784 400 0
SYMBOL voltage 432 176 M0
WINDOW 3 -51 147 VLeft 2
WINDOW 123 0 0 Left 0
WINDOW 39 0 0 Left 0
SYMATTR InstName V2
SYMATTR Value PWL(0 0 1 15)
SYMBOL res 576 240 R0
SYMATTR InstName R1
SYMATTR Value 1k
SYMBOL zener 656 160 M180
WINDOW 0 24 64 Left 2
WINDOW 3 52 43 VLeft 2
SYMATTR InstName D1
SYMATTR Value MMBZ18VAL
SYMATTR Description Diode
SYMATTR Type diode
SYMBOL pmos 512 112 R270
WINDOW 0 88 29 VRight 2
WINDOW 3 61 -26 VRight 2
SYMATTR InstName M1
SYMATTR Value DMP3028LK3
SYMATTR Prefix X
SYMBOL pmos 1120 192 M180
SYMATTR InstName M2
SYMATTR Value DMP3028LK3
SYMATTR Prefix X
SYMBOL nmos 992 192 R0
SYMATTR InstName M3
SYMATTR Value 2N7002
SYMBOL res 960 272 M0
SYMATTR InstName R3
SYMATTR Value 1k
SYMBOL res 1024 64 R0
SYMATTR InstName R4
SYMATTR Value 1k
SYMBOL res 1152 240 R0
SYMATTR InstName Rload
SYMATTR Value 1
SYMBOL res 960 160 M0
SYMATTR InstName R2
SYMATTR Value 0
SYMBOL zener 960 144 R180
WINDOW 0 24 64 Left 2
WINDOW 3 24 0 Left 2
SYMATTR InstName D2
SYMATTR Value DI_BZT52C8V2
SYMATTR Prefix X
TEXT 368 -64 Left 2 !.lib DMP3028LK3.spice
TEXT 368 -88 Left 2 !.tran 1
TEXT 368 -40 Left 2 !.lib BZT52C8V2.spice
