Version 4
SHEET 1 880 680
WIRE 256 160 32 160
WIRE 416 176 384 176
WIRE 256 192 224 192
WIRE 416 192 416 176
WIRE 32 208 32 160
WIRE 224 208 224 192
WIRE 416 288 416 272
WIRE 32 304 32 288
FLAG 32 304 0
FLAG 224 208 0
FLAG 416 288 0
SYMBOL myuv 320 176 R0
SYMATTR InstName X1
SYMBOL voltage 32 192 R0
WINDOW 123 0 0 Left 0
WINDOW 39 0 0 Left 0
SYMATTR InstName V1
SYMATTR Value PWL(0 -1 1 11)
SYMBOL res 400 176 R0
SYMATTR InstName R1
SYMATTR Value 1
TEXT 32 136 Left 2 !.tran 1
